L6/1726528/Trafos.dss
! ==========================================================
! TRANSFORMADORES DE DISTRIBUICAO — gerados de UNTRMT/EQTRMT
! Secundario 1F/2F: 3 enrolamentos com derivacao central
! Neutro no no 4, aterrado em _ATERRAMENTO.dss
! Kv de BT conforme TEN_LIN_SE da BDGD
! ==========================================================
New Transformer.365308050_1953074539 phases=3 windings=2 Xhl=4.900
~ wdg=1 bus=node_436698924.1.2.3 conn=delta Kv=13.8 Kva=300.0 %R=0.495
~ wdg=2 bus=node_423735872.1.2.3.4 conn=wye Kv=0.2200 Kva=300.0 %R=0.495
New Transformer.365308622_365480651 phases=3 windings=2 Xhl=4.900
~ wdg=1 bus=node_428824438.1.2.3 conn=delta Kv=13.8 Kva=300.0 %R=0.495
~ wdg=2 bus=node_559135777.1.2.3.4 conn=wye Kv=0.2200 Kva=300.0 %R=0.495
New Transformer.365309895_985717864 phases=3 windings=2 Xhl=4.900
~ wdg=1 bus=node_1247634592.1.2.3 conn=delta Kv=13.8 Kva=300.0 %R=0.495
~ wdg=2 bus=node_1247634827.1.2.3.4 conn=wye Kv=0.2200 Kva=300.0 %R=0.495
New Transformer.365309652_1961293088 phases=3 windings=2 Xhl=4.900
~ wdg=1 bus=node_441209013.1.2.3 conn=delta Kv=13.8 Kva=300.0 %R=0.495
~ wdg=2 bus=node_423774470.1.2.3.4 conn=wye Kv=0.2200 Kva=300.0 %R=0.495
New Transformer.365308943_2765992984 phases=3 windings=2 Xhl=4.960
~ wdg=1 bus=node_426303806.1.2.3 conn=delta Kv=13.8 Kva=300.0 %R=0.305
~ wdg=2 bus=node_423773168.1.2.3.4 conn=wye Kv=0.2200 Kva=300.0 %R=0.305
New Transformer.2013834665_2013834664 phases=3 windings=2 Xhl=4.900
~ wdg=1 bus=node_2331466260.1.2.3 conn=delta Kv=13.8 Kva=300.0 %R=0.495
~ wdg=2 bus=node_2331466330.1.2.3.4 conn=wye Kv=0.2200 Kva=300.0 %R=0.495
New Transformer.2039285149_2039285148 phases=3 windings=2 Xhl=4.900
~ wdg=1 bus=node_2354842623.1.2.3 conn=delta Kv=13.8 Kva=300.0 %R=0.495
~ wdg=2 bus=node_2354842744.1.2.3.4 conn=wye Kv=0.2200 Kva=300.0 %R=0.495
New Transformer.540421388_540421387 phases=3 windings=2 Xhl=4.900
~ wdg=1 bus=node_810449599.1.2.3 conn=delta Kv=13.8 Kva=300.0 %R=0.495
~ wdg=2 bus=node_810449616.1.2.3.4 conn=wye Kv=0.2200 Kva=300.0 %R=0.495
New Transformer.365348598_365476352 phases=3 windings=2 Xhl=4.890
~ wdg=1 bus=node_442095626.1.2.3 conn=delta Kv=13.8 Kva=225.0 %R=0.530
~ wdg=2 bus=node_561717089.1.2.3.4 conn=wye Kv=0.2200 Kva=225.0 %R=0.530
New Transformer.365310968_365466443 phases=3 windings=2 Xhl=4.890
~ wdg=1 bus=node_428046712.1.2.3 conn=delta Kv=13.8 Kva=225.0 %R=0.530
~ wdg=2 bus=node_559144949.1.2.3.4 conn=wye Kv=0.2200 Kva=225.0 %R=0.530
New Transformer.2587813554_2587813553 phases=3 windings=2 Xhl=3.840
~ wdg=1 bus=node_2740748714.1.2.3 conn=delta Kv=13.8 Kva=150.0 %R=0.565
~ wdg=2 bus=node_2740748700.1.2.3.4 conn=wye Kv=0.2200 Kva=150.0 %R=0.565
New Transformer.365378857_365479146 phases=3 windings=2 Xhl=3.840
~ wdg=1 bus=node_428822300.1.2.3 conn=delta Kv=13.8 Kva=150.0 %R=0.565
~ wdg=2 bus=node_562171564.1.2.3.4 conn=wye Kv=0.2200 Kva=150.0 %R=0.565
New Transformer.365377717_365480659 phases=3 windings=2 Xhl=3.840
~ wdg=1 bus=node_428046847.1.2.3 conn=delta Kv=13.8 Kva=150.0 %R=0.565
~ wdg=2 bus=node_561717279.1.2.3.4 conn=wye Kv=0.2200 Kva=150.0 %R=0.565
New Transformer.365369210_365477654 phases=3 windings=2 Xhl=3.840
~ wdg=1 bus=node_426144823.1.2.3 conn=delta Kv=13.8 Kva=150.0 %R=0.565
~ wdg=2 bus=node_559146236.1.2.3.4 conn=wye Kv=0.2200 Kva=150.0 %R=0.565
New Transformer.365369575_365379443 phases=3 windings=2 Xhl=3.840
~ wdg=1 bus=node_428824498.1.2.3 conn=delta Kv=13.8 Kva=150.0 %R=0.565
~ wdg=2 bus=node_423775559.1.2.3.4 conn=wye Kv=0.2200 Kva=150.0 %R=0.565
New Transformer.365377012_365451113 phases=3 windings=2 Xhl=3.840
~ wdg=1 bus=node_428664305.1.2.3 conn=delta Kv=13.8 Kva=150.0 %R=0.565
~ wdg=2 bus=node_423721034.1.2.3.4 conn=wye Kv=0.2200 Kva=150.0 %R=0.565
New Transformer.365368436_1066827221 phases=3 windings=2 Xhl=3.840
~ wdg=1 bus=node_442372922.1.2.3 conn=delta Kv=13.8 Kva=150.0 %R=0.565
~ wdg=2 bus=node_423769073.1.2.3.4 conn=wye Kv=0.2200 Kva=150.0 %R=0.565
New Transformer.365350442_365486218 phases=3 windings=2 Xhl=3.840
~ wdg=1 bus=node_441810499.1.2.3 conn=delta Kv=13.8 Kva=150.0 %R=0.565
~ wdg=2 bus=node_423776177.1.2.3.4 conn=wye Kv=0.2200 Kva=150.0 %R=0.565
New Transformer.365367946_365479187 phases=3 windings=2 Xhl=3.840
~ wdg=1 bus=node_426300052.1.2.3 conn=delta Kv=13.8 Kva=150.0 %R=0.565
~ wdg=2 bus=node_423721160.1.2.3.4 conn=wye Kv=0.2200 Kva=150.0 %R=0.565
New Transformer.365370817_365450809 phases=3 windings=2 Xhl=3.840
~ wdg=1 bus=node_444367209.1.2.3 conn=delta Kv=13.8 Kva=150.0 %R=0.565
~ wdg=2 bus=node_559131972.1.2.3.4 conn=wye Kv=0.2200 Kva=150.0 %R=0.565
New Transformer.1768750218_1768750217 phases=3 windings=2 Xhl=3.840
~ wdg=1 bus=node_2094115137.1.2.3 conn=delta Kv=13.8 Kva=150.0 %R=0.565
~ wdg=2 bus=node_2094115178.1.2.3.4 conn=wye Kv=0.2200 Kva=150.0 %R=0.565
New Transformer.525070368_525070367 phases=3 windings=2 Xhl=3.840
~ wdg=1 bus=node_795059883.1.2.3 conn=delta Kv=13.8 Kva=150.0 %R=0.565
~ wdg=2 bus=node_795059900.1.2.3.4 conn=wye Kv=0.2200 Kva=150.0 %R=0.565
New Transformer.365311309_365478506 phases=3 windings=2 Xhl=3.840
~ wdg=1 bus=node_431658196.1.2.3 conn=delta Kv=13.8 Kva=150.0 %R=0.565
~ wdg=2 bus=node_423776051.1.2.3.4 conn=wye Kv=0.2200 Kva=150.0 %R=0.565
New Transformer.365348570_365465017 phases=3 windings=2 Xhl=3.840
~ wdg=1 bus=node_428344710.1.2.3 conn=delta Kv=13.8 Kva=150.0 %R=0.565
~ wdg=2 bus=node_423770003.1.2.3.4 conn=wye Kv=0.2200 Kva=150.0 %R=0.565
New Transformer.365310911_365452401 phases=3 windings=2 Xhl=3.840
~ wdg=1 bus=node_428957967.1.2.3 conn=delta Kv=13.8 Kva=150.0 %R=0.565
~ wdg=2 bus=node_423774239.1.2.3.4 conn=wye Kv=0.2200 Kva=150.0 %R=0.565
New Transformer.365310176_365463786 phases=3 windings=2 Xhl=3.840
~ wdg=1 bus=node_444367233.1.2.3 conn=delta Kv=13.8 Kva=150.0 %R=0.565
~ wdg=2 bus=node_559464544.1.2.3.4 conn=wye Kv=0.2200 Kva=150.0 %R=0.565
New Transformer.365346613_980672333 phases=3 windings=2 Xhl=3.840
~ wdg=1 bus=node_428958237.1.2.3 conn=delta Kv=13.8 Kva=150.0 %R=0.565
~ wdg=2 bus=node_423721301.1.2.3.4 conn=wye Kv=0.2200 Kva=150.0 %R=0.565
New Transformer.365309578_1349372371 phases=3 windings=2 Xhl=3.840
~ wdg=1 bus=node_442514965.1.2.3 conn=delta Kv=13.8 Kva=150.0 %R=0.565
~ wdg=2 bus=node_423774293.1.2.3.4 conn=wye Kv=0.2200 Kva=150.0 %R=0.565
New Transformer.365308707_621827122 phases=3 windings=2 Xhl=3.840
~ wdg=1 bus=node_431803273.1.2.3 conn=delta Kv=13.8 Kva=150.0 %R=0.565
~ wdg=2 bus=node_423724703.1.2.3.4 conn=wye Kv=0.2200 Kva=150.0 %R=0.565
New Transformer.365331486_2066135404 phases=3 windings=2 Xhl=3.840
~ wdg=1 bus=node_440582815.1.2.3 conn=delta Kv=13.8 Kva=150.0 %R=0.565
~ wdg=2 bus=node_423774872.1.2.3.4 conn=wye Kv=0.2200 Kva=150.0 %R=0.565
New Transformer.365272395_365486198 phases=3 windings=2 Xhl=3.840
~ wdg=1 bus=node_428046067.1.2.3 conn=delta Kv=13.8 Kva=150.0 %R=0.565
~ wdg=2 bus=node_423776153.1.2.3.4 conn=wye Kv=0.2200 Kva=150.0 %R=0.565
New Transformer.365272170_365484585 phases=3 windings=2 Xhl=3.840
~ wdg=1 bus=node_428344884.1.2.3 conn=delta Kv=13.8 Kva=150.0 %R=0.565
~ wdg=2 bus=node_423716912.1.2.3.4 conn=wye Kv=0.2200 Kva=150.0 %R=0.565
New Transformer.913973644_913973643 phases=3 windings=2 Xhl=3.840
~ wdg=1 bus=node_1174542120.1.2.3 conn=delta Kv=13.8 Kva=150.0 %R=0.565
~ wdg=2 bus=node_1174542131.1.2.3.4 conn=wye Kv=0.2200 Kva=150.0 %R=0.565
New Transformer.365347805_365486199 phases=3 windings=2 Xhl=3.840
~ wdg=1 bus=node_428045276.1.2.3 conn=delta Kv=13.8 Kva=112.5 %R=0.565
~ wdg=2 bus=node_423776063.1.2.3.4 conn=wye Kv=0.2200 Kva=112.5 %R=0.565
New Transformer.365329283_365466450 phases=3 windings=2 Xhl=3.840
~ wdg=1 bus=node_428822875.1.2.3 conn=delta Kv=13.8 Kva=112.5 %R=0.565
~ wdg=2 bus=node_423776396.1.2.3.4 conn=wye Kv=0.2200 Kva=112.5 %R=0.565
New Transformer.365349241_365480647 phases=3 windings=2 Xhl=3.840
~ wdg=1 bus=node_428046426.1.2.3 conn=delta Kv=13.8 Kva=112.5 %R=0.565
~ wdg=2 bus=node_423776246.1.2.3.4 conn=wye Kv=0.2200 Kva=112.5 %R=0.565
New Transformer.365371768_365476300 phases=3 windings=2 Xhl=3.840
~ wdg=1 bus=node_442660416.1.2.3 conn=delta Kv=13.8 Kva=112.5 %R=0.565
~ wdg=2 bus=node_423773762.1.2.3.4 conn=wye Kv=0.2200 Kva=112.5 %R=0.565
New Transformer.365368492_365452428 phases=3 windings=2 Xhl=3.840
~ wdg=1 bus=node_428665334.1.2.3 conn=delta Kv=13.8 Kva=112.5 %R=0.565
~ wdg=2 bus=node_423776768.1.2.3.4 conn=wye Kv=0.2200 Kva=112.5 %R=0.565
New Transformer.365377502_365466446 phases=3 windings=2 Xhl=3.840
~ wdg=1 bus=node_426143918.1.2.3 conn=delta Kv=13.8 Kva=112.5 %R=0.565
~ wdg=2 bus=node_423775883.1.2.3.4 conn=wye Kv=0.2200 Kva=112.5 %R=0.565
New Transformer.365377632_365483405 phases=3 windings=2 Xhl=3.840
~ wdg=1 bus=node_428046441.1.2.3 conn=delta Kv=13.8 Kva=112.5 %R=0.565
~ wdg=2 bus=node_423776243.1.2.3.4 conn=wye Kv=0.2200 Kva=112.5 %R=0.565
New Transformer.1017729576_1017729575 phases=3 windings=2 Xhl=3.770
~ wdg=1 bus=node_1246518191.1.2.3 conn=delta Kv=13.8 Kva=75.0 %R=0.670
~ wdg=2 bus=node_1246518169.1.2.3.4 conn=wye Kv=0.2200 Kva=75.0 %R=0.670
New Transformer.762103416_762103417 phases=3 windings=2 Xhl=3.770
~ wdg=1 bus=node_428045241.1.2.3 conn=delta Kv=13.8 Kva=75.0 %R=0.670
~ wdg=2 bus=node_1035219010.1.2.3.4 conn=wye Kv=0.2200 Kva=75.0 %R=0.670
New Transformer.1206201937_1206201938 phases=3 windings=2 Xhl=3.770
~ wdg=1 bus=node_1504862598.1.2.3 conn=delta Kv=13.8 Kva=75.0 %R=0.670
~ wdg=2 bus=node_1504862609.1.2.3.4 conn=wye Kv=0.2200 Kva=75.0 %R=0.670
New Transformer.365329879_1729026334 phases=3 windings=2 Xhl=3.770
~ wdg=1 bus=node_431800688.1.2.3 conn=delta Kv=13.8 Kva=75.0 %R=0.670
~ wdg=2 bus=node_423755009.1.2.3.4 conn=wye Kv=0.2200 Kva=75.0 %R=0.670
New Transformer.365271750_1020692467 phases=3 windings=2 Xhl=3.770
~ wdg=1 bus=node_431658470.1.2.3 conn=delta Kv=13.8 Kva=75.0 %R=0.670
~ wdg=2 bus=node_423775610.1.2.3.4 conn=wye Kv=0.2200 Kva=75.0 %R=0.670
New Transformer.365329541_1720786359 phases=3 windings=2 Xhl=3.770
~ wdg=1 bus=node_426787117.1.2.3 conn=delta Kv=13.8 Kva=75.0 %R=0.670
~ wdg=2 bus=node_423775187.1.2.3.4 conn=wye Kv=0.2200 Kva=75.0 %R=0.670
New Transformer.365271575_365465030 phases=3 windings=2 Xhl=3.770
~ wdg=1 bus=node_426143579.1.2.3 conn=delta Kv=13.8 Kva=75.0 %R=0.670
~ wdg=2 bus=node_423721256.1.2.3.4 conn=wye Kv=0.2200 Kva=75.0 %R=0.670
New Transformer.365329817_365483342 phases=3 windings=2 Xhl=3.770
~ wdg=1 bus=node_441661413.1.2.3 conn=delta Kv=13.8 Kva=75.0 %R=0.670
~ wdg=2 bus=node_423776645.1.2.3.4 conn=wye Kv=0.2200 Kva=75.0 %R=0.670
New Transformer.365329913_365476336 phases=3 windings=2 Xhl=3.770
~ wdg=1 bus=node_426143933.1.2.3 conn=delta Kv=13.8 Kva=75.0 %R=0.670
~ wdg=2 bus=node_423775628.1.2.3.4 conn=wye Kv=0.2200 Kva=75.0 %R=0.670
New Transformer.365329815_1226808683 phases=3 windings=2 Xhl=3.770
~ wdg=1 bus=node_426143484.1.2.3 conn=delta Kv=13.8 Kva=75.0 %R=0.670
~ wdg=2 bus=node_423776186.1.2.3.4 conn=wye Kv=0.2200 Kva=75.0 %R=0.670
New Transformer.365329923_365379387 phases=3 windings=2 Xhl=3.770
~ wdg=1 bus=node_428045732.1.2.3 conn=delta Kv=13.8 Kva=75.0 %R=0.670
~ wdg=2 bus=node_423772292.1.2.3.4 conn=wye Kv=0.2200 Kva=75.0 %R=0.670
New Transformer.365271941_365380659 phases=3 windings=2 Xhl=3.770
~ wdg=1 bus=node_426144177.1.2.3 conn=delta Kv=13.8 Kva=75.0 %R=0.670
~ wdg=2 bus=node_561890328.1.2.3.4 conn=wye Kv=0.2200 Kva=75.0 %R=0.670
New Transformer.365330041_514365378 phases=3 windings=2 Xhl=3.770
~ wdg=1 bus=node_441952828.1.2.3 conn=delta Kv=13.8 Kva=75.0 %R=0.670
~ wdg=2 bus=node_423775061.1.2.3.4 conn=wye Kv=0.2200 Kva=75.0 %R=0.670
New Transformer.365271379_365466336 phases=3 windings=2 Xhl=3.770
~ wdg=1 bus=node_442516030.1.2.3 conn=delta Kv=13.8 Kva=75.0 %R=0.670
~ wdg=2 bus=node_423773600.1.2.3.4 conn=wye Kv=0.2200 Kva=75.0 %R=0.670
New Transformer.365272348_365453710 phases=3 windings=2 Xhl=3.770
~ wdg=1 bus=node_426302086.1.2.3 conn=delta Kv=13.8 Kva=75.0 %R=0.670
~ wdg=2 bus=node_423775250.1.2.3.4 conn=wye Kv=0.2200 Kva=75.0 %R=0.670
New Transformer.365272520_365379457 phases=3 windings=2 Xhl=3.770
~ wdg=1 bus=node_428822491.1.2.3 conn=delta Kv=13.8 Kva=75.0 %R=0.670
~ wdg=2 bus=node_423776198.1.2.3.4 conn=wye Kv=0.2200 Kva=75.0 %R=0.670
New Transformer.365330495_2132331697 phases=3 windings=2 Xhl=3.770
~ wdg=1 bus=node_428822315.1.2.3 conn=delta Kv=13.8 Kva=75.0 %R=0.670
~ wdg=2 bus=node_423773003.1.2.3.4 conn=wye Kv=0.2200 Kva=75.0 %R=0.670
New Transformer.365272431_365380682 phases=3 windings=2 Xhl=3.770
~ wdg=1 bus=node_426300232.1.2.3 conn=delta Kv=13.8 Kva=75.0 %R=0.670
~ wdg=2 bus=node_423775340.1.2.3.4 conn=wye Kv=0.2200 Kva=75.0 %R=0.670
New Transformer.365330369_365453611 phases=3 windings=2 Xhl=3.770
~ wdg=1 bus=node_435265947.1.2.3 conn=delta Kv=13.8 Kva=75.0 %R=0.670
~ wdg=2 bus=node_423772331.1.2.3.4 conn=wye Kv=0.2200 Kva=75.0 %R=0.670
New Transformer.365272080_365479402 phases=3 windings=2 Xhl=3.770
~ wdg=1 bus=node_429604012.1.2.3 conn=delta Kv=13.8 Kva=75.0 %R=0.670
~ wdg=2 bus=node_423721319.1.2.3.4 conn=wye Kv=0.2200 Kva=75.0 %R=0.670
New Transformer.365329976_365453730 phases=3 windings=2 Xhl=3.770
~ wdg=1 bus=node_431658182.1.2.3 conn=delta Kv=13.8 Kva=75.0 %R=0.670
~ wdg=2 bus=node_423775538.1.2.3.4 conn=wye Kv=0.2200 Kva=75.0 %R=0.670
New Transformer.365271954_365476334 phases=3 windings=2 Xhl=3.770
~ wdg=1 bus=node_441663053.1.2.3 conn=delta Kv=13.8 Kva=75.0 %R=0.670
~ wdg=2 bus=node_423777980.1.2.3.4 conn=wye Kv=0.2200 Kva=75.0 %R=0.670
New Transformer.365271994_764160242 phases=3 windings=2 Xhl=3.770
~ wdg=1 bus=node_428046562.1.2.3 conn=delta Kv=13.8 Kva=75.0 %R=0.670
~ wdg=2 bus=node_423775787.1.2.3.4 conn=wye Kv=0.2200 Kva=75.0 %R=0.670
New Transformer.365271617_1914651661 phases=3 windings=2 Xhl=3.770
~ wdg=1 bus=node_431656653.1.2.3 conn=delta Kv=13.8 Kva=75.0 %R=0.670
~ wdg=2 bus=node_423717098.1.2.3.4 conn=wye Kv=0.2200 Kva=75.0 %R=0.670
New Transformer.365329987_365379448 phases=3 windings=2 Xhl=3.770
~ wdg=1 bus=node_441663138.1.2.3 conn=delta Kv=13.8 Kva=75.0 %R=0.670
~ wdg=2 bus=node_423777983.1.2.3.4 conn=wye Kv=0.2200 Kva=75.0 %R=0.670
New Transformer.365330888_365379465 phases=3 windings=2 Xhl=3.770
~ wdg=1 bus=node_436093483.1.2.3 conn=delta Kv=13.8 Kva=75.0 %R=0.670
~ wdg=2 bus=node_423775328.1.2.3.4 conn=wye Kv=0.2200 Kva=75.0 %R=0.670
New Transformer.365330879_365486094 phases=3 windings=2 Xhl=3.770
~ wdg=1 bus=node_428957842.1.2.3 conn=delta Kv=13.8 Kva=75.0 %R=0.670
~ wdg=2 bus=node_423775193.1.2.3.4 conn=wye Kv=0.2200 Kva=75.0 %R=0.670
New Transformer.365330697_365451818 phases=3 windings=2 Xhl=3.770
~ wdg=1 bus=node_428045607.1.2.3 conn=delta Kv=13.8 Kva=75.0 %R=0.670
~ wdg=2 bus=node_423759953.1.2.3.4 conn=wye Kv=0.2200 Kva=75.0 %R=0.670
New Transformer.365272721_2042393870 phases=3 windings=2 Xhl=3.770
~ wdg=1 bus=node_442372802.1.2.3 conn=delta Kv=13.8 Kva=75.0 %R=0.670
~ wdg=2 bus=node_423774530.1.2.3.4 conn=wye Kv=0.2200 Kva=75.0 %R=0.670
New Transformer.365272651_365466407 phases=3 windings=2 Xhl=3.770
~ wdg=1 bus=node_441507548.1.2.3 conn=delta Kv=13.8 Kva=75.0 %R=0.670
~ wdg=2 bus=node_423774554.1.2.3.4 conn=wye Kv=0.2200 Kva=75.0 %R=0.670
New Transformer.1396249991_1396249990 phases=3 windings=2 Xhl=3.770
~ wdg=1 bus=node_1691209111.1.2.3 conn=delta Kv=13.8 Kva=75.0 %R=0.670
~ wdg=2 bus=node_1691209122.1.2.3.4 conn=wye Kv=0.2200 Kva=75.0 %R=0.670
New Transformer.365330456_365379413 phases=3 windings=2 Xhl=3.770
~ wdg=1 bus=node_432441696.1.2.3 conn=delta Kv=13.8 Kva=75.0 %R=0.670
~ wdg=2 bus=node_423774266.1.2.3.4 conn=wye Kv=0.2200 Kva=75.0 %R=0.670
New Transformer.365330523_365479351 phases=3 windings=2 Xhl=3.770
~ wdg=1 bus=node_428822311.1.2.3 conn=delta Kv=13.8 Kva=75.0 %R=0.670
~ wdg=2 bus=node_423723314.1.2.3.4 conn=wye Kv=0.2200 Kva=75.0 %R=0.670
New Transformer.1300996162_1300996161 phases=3 windings=2 Xhl=3.770
~ wdg=1 bus=node_1599459184.1.2.3 conn=delta Kv=13.8 Kva=75.0 %R=0.670
~ wdg=2 bus=node_1599459195.1.2.3.4 conn=wye Kv=0.2200 Kva=75.0 %R=0.670
New Transformer.365330629_365450319 phases=3 windings=2 Xhl=3.770
~ wdg=1 bus=node_442093925.1.2.3 conn=delta Kv=13.8 Kva=75.0 %R=0.670
~ wdg=2 bus=node_423762566.1.2.3.4 conn=wye Kv=0.2200 Kva=75.0 %R=0.670
New Transformer.365272221_365486201 phases=3 windings=2 Xhl=3.770
~ wdg=1 bus=node_431658355.1.2.3 conn=delta Kv=13.8 Kva=75.0 %R=0.670
~ wdg=2 bus=node_423775580.1.2.3.4 conn=wye Kv=0.2200 Kva=75.0 %R=0.670
New Transformer.365330589_365379421 phases=3 windings=2 Xhl=3.770
~ wdg=1 bus=node_428822266.1.2.3 conn=delta Kv=13.8 Kva=75.0 %R=0.670
~ wdg=2 bus=node_423773960.1.2.3.4 conn=wye Kv=0.2200 Kva=75.0 %R=0.670
New Transformer.365330302_365483381 phases=3 windings=2 Xhl=3.770
~ wdg=1 bus=node_428045282.1.2.3 conn=delta Kv=13.8 Kva=75.0 %R=0.670
~ wdg=2 bus=node_423775583.1.2.3.4 conn=wye Kv=0.2200 Kva=75.0 %R=0.670
New Transformer.365331800_365480658 phases=3 windings=2 Xhl=3.770
~ wdg=1 bus=node_428822201.1.2.3 conn=delta Kv=13.8 Kva=75.0 %R=0.670
~ wdg=2 bus=node_423776345.1.2.3.4 conn=wye Kv=0.2200 Kva=75.0 %R=0.670
New Transformer.365308111_365480164 phases=3 windings=2 Xhl=3.770
~ wdg=1 bus=node_428664685.1.2.3 conn=delta Kv=13.8 Kva=75.0 %R=0.670
~ wdg=2 bus=node_423765173.1.2.3.4 conn=wye Kv=0.2200 Kva=75.0 %R=0.670
New Transformer.365331417_518865490 phases=3 windings=2 Xhl=3.770
~ wdg=1 bus=node_441953638.1.2.3 conn=delta Kv=13.8 Kva=75.0 %R=0.670
~ wdg=2 bus=node_423773732.1.2.3.4 conn=wye Kv=0.2200 Kva=75.0 %R=0.670
New Transformer.470983941_470983940 phases=3 windings=2 Xhl=3.770
~ wdg=1 bus=node_740768387.1.2.3 conn=delta Kv=13.8 Kva=75.0 %R=0.670
~ wdg=2 bus=node_740768397.1.2.3.4 conn=wye Kv=0.2200 Kva=75.0 %R=0.670
New Transformer.470984001_470984000 phases=3 windings=2 Xhl=3.770
~ wdg=1 bus=node_740768266.1.2.3 conn=delta Kv=13.8 Kva=75.0 %R=0.670
~ wdg=2 bus=node_740768503.1.2.3.4 conn=wye Kv=0.2200 Kva=75.0 %R=0.670
New Transformer.951744561_951744560 phases=3 windings=2 Xhl=3.770
~ wdg=1 bus=node_1214155711.1.2.3 conn=delta Kv=13.8 Kva=75.0 %R=0.670
~ wdg=2 bus=node_555462294.1.2.3.4 conn=wye Kv=0.2200 Kva=75.0 %R=0.670
New Transformer.365273097_365453714 phases=3 windings=2 Xhl=3.770
~ wdg=1 bus=node_428202014.1.2.3 conn=delta Kv=13.8 Kva=75.0 %R=0.670
~ wdg=2 bus=node_423774017.1.2.3.4 conn=wye Kv=0.2200 Kva=75.0 %R=0.670
New Transformer.365331056_365453614 phases=3 windings=2 Xhl=3.770
~ wdg=1 bus=node_431344576.1.2.3 conn=delta Kv=13.8 Kva=75.0 %R=0.670
~ wdg=2 bus=node_423774953.1.2.3.4 conn=wye Kv=0.2200 Kva=75.0 %R=0.670
New Transformer.365272964_2622156941 phases=3 windings=2 Xhl=3.770
~ wdg=1 bus=node_428046797.1.2.3 conn=delta Kv=13.8 Kva=75.0 %R=0.670
~ wdg=2 bus=node_423776348.1.2.3.4 conn=wye Kv=0.2200 Kva=75.0 %R=0.670
New Transformer.365272808_365379303 phases=3 windings=2 Xhl=3.770
~ wdg=1 bus=node_428823623.1.2.3 conn=delta Kv=13.8 Kva=75.0 %R=0.670
~ wdg=2 bus=node_423772385.1.2.3.4 conn=wye Kv=0.2200 Kva=75.0 %R=0.670
New Transformer.365331274_365484715 phases=3 windings=2 Xhl=3.770
~ wdg=1 bus=node_428345034.1.2.3 conn=delta Kv=13.8 Kva=75.0 %R=0.670
~ wdg=2 bus=node_559294137.1.2.3.4 conn=wye Kv=0.2200 Kva=75.0 %R=0.670
New Transformer.365331031_365476344 phases=3 windings=2 Xhl=3.770
~ wdg=1 bus=node_441952753.1.2.3 conn=delta Kv=13.8 Kva=75.0 %R=0.670
~ wdg=2 bus=node_423776717.1.2.3.4 conn=wye Kv=0.2200 Kva=75.0 %R=0.670
New Transformer.365330965_365453686 phases=3 windings=2 Xhl=3.770
~ wdg=1 bus=node_426144348.1.2.3 conn=delta Kv=13.8 Kva=75.0 %R=0.670
~ wdg=2 bus=node_423773834.1.2.3.4 conn=wye Kv=0.2200 Kva=75.0 %R=0.670
New Transformer.365330743_1722929109 phases=3 windings=2 Xhl=3.770
~ wdg=1 bus=node_441661468.1.2.3 conn=delta Kv=13.8 Kva=75.0 %R=0.670
~ wdg=2 bus=node_423776618.1.2.3.4 conn=wye Kv=0.2200 Kva=75.0 %R=0.670
New Transformer.365308447_365451554 phases=3 windings=2 Xhl=3.770
~ wdg=1 bus=node_441506652.1.2.3 conn=delta Kv=13.8 Kva=75.0 %R=0.670
~ wdg=2 bus=node_423762800.1.2.3.4 conn=wye Kv=0.2200 Kva=75.0 %R=0.670
New Transformer.365308614_365483301 phases=3 windings=2 Xhl=3.770
~ wdg=1 bus=node_442372368.1.2.3 conn=delta Kv=13.8 Kva=75.0 %R=0.670
~ wdg=2 bus=node_423772646.1.2.3.4 conn=wye Kv=0.2200 Kva=75.0 %R=0.670
New Transformer.365331895_365453707 phases=3 windings=2 Xhl=3.770
~ wdg=1 bus=node_442932942.1.2.3 conn=delta Kv=13.8 Kva=75.0 %R=0.670
~ wdg=2 bus=node_411359875.1.2.3.4 conn=wye Kv=0.2200 Kva=75.0 %R=0.670
New Transformer.365308272_365486072 phases=3 windings=2 Xhl=3.770
~ wdg=1 bus=node_428958226.1.2.3 conn=delta Kv=13.8 Kva=75.0 %R=0.670
~ wdg=2 bus=node_423774938.1.2.3.4 conn=wye Kv=0.2200 Kva=75.0 %R=0.670
New Transformer.365308227_365453622 phases=3 windings=2 Xhl=3.770
~ wdg=1 bus=node_441663438.1.2.3 conn=delta Kv=13.8 Kva=75.0 %R=0.670
~ wdg=2 bus=node_423772748.1.2.3.4 conn=wye Kv=0.2200 Kva=75.0 %R=0.670
New Transformer.365308225_1368202125 phases=3 windings=2 Xhl=3.770
~ wdg=1 bus=node_442783612.1.2.3 conn=delta Kv=13.8 Kva=75.0 %R=0.670
~ wdg=2 bus=node_423775181.1.2.3.4 conn=wye Kv=0.2200 Kva=75.0 %R=0.670
New Transformer.365331870_365453638 phases=3 windings=2 Xhl=3.770
~ wdg=1 bus=node_441813059.1.2.3 conn=delta Kv=13.8 Kva=75.0 %R=0.670
~ wdg=2 bus=node_423774974.1.2.3.4 conn=wye Kv=0.2200 Kva=75.0 %R=0.670
New Transformer.365331806_1128441745 phases=3 windings=2 Xhl=3.770
~ wdg=1 bus=node_442222626.1.2.3 conn=delta Kv=13.8 Kva=75.0 %R=0.670
~ wdg=2 bus=node_423776342.1.2.3.4 conn=wye Kv=0.2200 Kva=75.0 %R=0.670
New Transformer.365331506_365379469 phases=3 windings=2 Xhl=3.770
~ wdg=1 bus=node_444366240.1.2.3 conn=delta Kv=13.8 Kva=75.0 %R=0.670
~ wdg=2 bus=node_423775241.1.2.3.4 conn=wye Kv=0.2200 Kva=75.0 %R=0.670
New Transformer.365331683_365480510 phases=3 windings=2 Xhl=3.770
~ wdg=1 bus=node_442096251.1.2.3 conn=delta Kv=13.8 Kva=75.0 %R=0.670
~ wdg=2 bus=node_423774344.1.2.3.4 conn=wye Kv=0.2200 Kva=75.0 %R=0.670
New Transformer.365307854_365480544 phases=3 windings=2 Xhl=3.770
~ wdg=1 bus=node_435930133.1.2.3 conn=delta Kv=13.8 Kva=75.0 %R=0.670
~ wdg=2 bus=node_423774617.1.2.3.4 conn=wye Kv=0.2200 Kva=75.0 %R=0.670
New Transformer.365308044_365476314 phases=3 windings=2 Xhl=3.770
~ wdg=1 bus=node_442780929.1.2.3 conn=delta Kv=13.8 Kva=75.0 %R=0.670
~ wdg=2 bus=node_423774092.1.2.3.4 conn=wye Kv=0.2200 Kva=75.0 %R=0.670
New Transformer.365331693_365450932 phases=3 windings=2 Xhl=3.770
~ wdg=1 bus=node_428959684.1.2.3 conn=delta Kv=13.8 Kva=75.0 %R=0.670
~ wdg=2 bus=node_423721340.1.2.3.4 conn=wye Kv=0.2200 Kva=75.0 %R=0.670
New Transformer.365331359_365453639 phases=3 windings=2 Xhl=3.770
~ wdg=1 bus=node_428664310.1.2.3 conn=delta Kv=13.8 Kva=75.0 %R=0.670
~ wdg=2 bus=node_423773192.1.2.3.4 conn=wye Kv=0.2200 Kva=75.0 %R=0.670
New Transformer.1917168704_1917168703 phases=3 windings=2 Xhl=3.770
~ wdg=1 bus=node_2234886096.1.2.3 conn=delta Kv=13.8 Kva=75.0 %R=0.670
~ wdg=2 bus=node_2234885620.1.2.3.4 conn=wye Kv=0.2200 Kva=75.0 %R=0.670
New Transformer.365309350_365480663 phases=3 windings=2 Xhl=3.770
~ wdg=1 bus=node_425982111.1.2.3 conn=delta Kv=13.8 Kva=75.0 %R=0.670
~ wdg=2 bus=node_423207507.1.2.3.4 conn=wye Kv=0.2200 Kva=75.0 %R=0.670
New Transformer.365332541_794286946 phases=3 windings=2 Xhl=3.770
~ wdg=1 bus=node_442094331.1.2.3 conn=delta Kv=13.8 Kva=75.0 %R=0.670
~ wdg=2 bus=node_423773504.1.2.3.4 conn=wye Kv=0.2200 Kva=75.0 %R=0.670
New Transformer.365332024_2571075440 phases=3 windings=2 Xhl=3.770
~ wdg=1 bus=node_431802328.1.2.3 conn=delta Kv=13.8 Kva=75.0 %R=0.670
~ wdg=2 bus=node_423775334.1.2.3.4 conn=wye Kv=0.2200 Kva=75.0 %R=0.670
New Transformer.365308488_365476333 phases=3 windings=2 Xhl=3.770
~ wdg=1 bus=node_428823449.1.2.3 conn=delta Kv=13.8 Kva=75.0 %R=0.670
~ wdg=2 bus=node_423777974.1.2.3.4 conn=wye Kv=0.2200 Kva=75.0 %R=0.670
New Transformer.365332344_365476339 phases=3 windings=2 Xhl=3.770
~ wdg=1 bus=node_441660018.1.2.3 conn=delta Kv=13.8 Kva=75.0 %R=0.670
~ wdg=2 bus=node_423775808.1.2.3.4 conn=wye Kv=0.2200 Kva=75.0 %R=0.670
New Transformer.365308402_365452395 phases=3 windings=2 Xhl=3.770
~ wdg=1 bus=node_442662756.1.2.3 conn=delta Kv=13.8 Kva=75.0 %R=0.670
~ wdg=2 bus=node_423774830.1.2.3.4 conn=wye Kv=0.2200 Kva=75.0 %R=0.670
New Transformer.365332094_365463747 phases=3 windings=2 Xhl=3.770
~ wdg=1 bus=node_428957912.1.2.3 conn=delta Kv=13.8 Kva=75.0 %R=0.670
~ wdg=2 bus=node_423724226.1.2.3.4 conn=wye Kv=0.2200 Kva=75.0 %R=0.670
New Transformer.365308754_2441053120 phases=3 windings=2 Xhl=3.770
~ wdg=1 bus=node_428046672.1.2.3 conn=delta Kv=13.8 Kva=75.0 %R=0.670
~ wdg=2 bus=node_423776336.1.2.3.4 conn=wye Kv=0.2200 Kva=75.0 %R=0.670
New Transformer.365332412_365379450 phases=3 windings=2 Xhl=3.770
~ wdg=1 bus=node_428823409.1.2.3 conn=delta Kv=13.8 Kva=75.0 %R=0.670
~ wdg=2 bus=node_423775451.1.2.3.4 conn=wye Kv=0.2200 Kva=75.0 %R=0.670
New Transformer.365332165_365486148 phases=3 windings=2 Xhl=3.770
~ wdg=1 bus=node_441509063.1.2.3 conn=delta Kv=13.8 Kva=75.0 %R=0.670
~ wdg=2 bus=node_423773144.1.2.3.4 conn=wye Kv=0.2200 Kva=75.0 %R=0.670
New Transformer.365308712_365486219 phases=3 windings=2 Xhl=3.770
~ wdg=1 bus=node_444462335.1.2.3 conn=delta Kv=13.8 Kva=75.0 %R=0.670
~ wdg=2 bus=node_423776111.1.2.3.4 conn=wye Kv=0.2200 Kva=75.0 %R=0.670
New Transformer.365332403_365453608 phases=3 windings=2 Xhl=3.770
~ wdg=1 bus=node_442097106.1.2.3 conn=delta Kv=13.8 Kva=75.0 %R=0.670
~ wdg=2 bus=node_423773696.1.2.3.4 conn=wye Kv=0.2200 Kva=75.0 %R=0.670
New Transformer.365333174_365486121 phases=3 windings=2 Xhl=3.770
~ wdg=1 bus=node_442933117.1.2.3 conn=delta Kv=13.8 Kva=75.0 %R=0.670
~ wdg=2 bus=node_423773414.1.2.3.4 conn=wye Kv=0.2200 Kva=75.0 %R=0.670
New Transformer.365309399_365486210 phases=3 windings=2 Xhl=3.770
~ wdg=1 bus=node_442222857.1.2.3 conn=delta Kv=13.8 Kva=75.0 %R=0.670
~ wdg=2 bus=node_423776333.1.2.3.4 conn=wye Kv=0.2200 Kva=75.0 %R=0.670
New Transformer.365309396_365486080 phases=3 windings=2 Xhl=3.770
~ wdg=1 bus=node_431343927.1.2.3 conn=delta Kv=13.8 Kva=75.0 %R=0.670
~ wdg=2 bus=node_423774527.1.2.3.4 conn=wye Kv=0.2200 Kva=75.0 %R=0.670
New Transformer.365309134_2196501299 phases=3 windings=2 Xhl=3.770
~ wdg=1 bus=node_441810394.1.2.3 conn=delta Kv=13.8 Kva=75.0 %R=0.670
~ wdg=2 bus=node_423774188.1.2.3.4 conn=wye Kv=0.2200 Kva=75.0 %R=0.670
New Transformer.365309241_365453739 phases=3 windings=2 Xhl=3.770
~ wdg=1 bus=node_425982120.1.2.3 conn=delta Kv=13.8 Kva=75.0 %R=0.670
~ wdg=2 bus=node_423206673.1.2.3.4 conn=wye Kv=0.2200 Kva=75.0 %R=0.670
New Transformer.365309031_1035936112 phases=3 windings=2 Xhl=3.770
~ wdg=1 bus=node_431800538.1.2.3 conn=delta Kv=13.8 Kva=75.0 %R=0.670
~ wdg=2 bus=node_423775490.1.2.3.4 conn=wye Kv=0.2200 Kva=75.0 %R=0.670
New Transformer.365333042_401248536 phases=3 windings=2 Xhl=3.770
~ wdg=1 bus=node_428665350.1.2.3 conn=delta Kv=13.8 Kva=75.0 %R=0.670
~ wdg=2 bus=node_423778061.1.2.3.4 conn=wye Kv=0.2200 Kva=75.0 %R=0.670
New Transformer.365309301_365480593 phases=3 windings=2 Xhl=3.770
~ wdg=1 bus=node_441813309.1.2.3 conn=delta Kv=13.8 Kva=75.0 %R=0.670
~ wdg=2 bus=node_423775943.1.2.3.4 conn=wye Kv=0.2200 Kva=75.0 %R=0.670
New Transformer.365333187_365478589 phases=3 windings=2 Xhl=3.770
~ wdg=1 bus=node_441507808.1.2.3 conn=delta Kv=13.8 Kva=75.0 %R=0.670
~ wdg=2 bus=node_423761093.1.2.3.4 conn=wye Kv=0.2200 Kva=75.0 %R=0.670
New Transformer.365333036_365478294 phases=3 windings=2 Xhl=3.770
~ wdg=1 bus=node_442517300.1.2.3 conn=delta Kv=13.8 Kva=75.0 %R=0.670
~ wdg=2 bus=node_423746210.1.2.3.4 conn=wye Kv=0.2200 Kva=75.0 %R=0.670
New Transformer.365310017_365483386 phases=3 windings=2 Xhl=3.770
~ wdg=1 bus=node_428823614.1.2.3 conn=delta Kv=13.8 Kva=75.0 %R=0.670
~ wdg=2 bus=node_423775322.1.2.3.4 conn=wye Kv=0.2200 Kva=75.0 %R=0.670
New Transformer.365310033_365452427 phases=3 windings=2 Xhl=3.770
~ wdg=1 bus=node_441953568.1.2.3 conn=delta Kv=13.8 Kva=75.0 %R=0.670
~ wdg=2 bus=node_423778034.1.2.3.4 conn=wye Kv=0.2200 Kva=75.0 %R=0.670
New Transformer.365346731_365480642 phases=3 windings=2 Xhl=3.770
~ wdg=1 bus=node_428822301.1.2.3 conn=delta Kv=13.8 Kva=75.0 %R=0.670
~ wdg=2 bus=node_423775985.1.2.3.4 conn=wye Kv=0.2200 Kva=75.0 %R=0.670
New Transformer.365309909_365476337 phases=3 windings=2 Xhl=3.770
~ wdg=1 bus=node_444367259.1.2.3 conn=delta Kv=13.8 Kva=75.0 %R=0.670
~ wdg=2 bus=node_423776054.1.2.3.4 conn=wye Kv=0.2200 Kva=75.0 %R=0.670
New Transformer.365333366_365466021 phases=3 windings=2 Xhl=3.770
~ wdg=1 bus=node_442930448.1.2.3 conn=delta Kv=13.8 Kva=75.0 %R=0.670
~ wdg=2 bus=node_423764606.1.2.3.4 conn=wye Kv=0.2200 Kva=75.0 %R=0.670
New Transformer.365309592_365452429 phases=3 windings=2 Xhl=3.770
~ wdg=1 bus=node_441954203.1.2.3 conn=delta Kv=13.8 Kva=75.0 %R=0.670
~ wdg=2 bus=node_423776744.1.2.3.4 conn=wye Kv=0.2200 Kva=75.0 %R=0.670
New Transformer.365333354_365464082 phases=3 windings=2 Xhl=3.770
~ wdg=1 bus=node_435431092.1.2.3 conn=delta Kv=13.8 Kva=75.0 %R=0.670
~ wdg=2 bus=node_423737333.1.2.3.4 conn=wye Kv=0.2200 Kva=75.0 %R=0.670
New Transformer.365333255_365485773 phases=3 windings=2 Xhl=3.770
~ wdg=1 bus=node_442516255.1.2.3 conn=delta Kv=13.8 Kva=75.0 %R=0.670
~ wdg=2 bus=node_423761645.1.2.3.4 conn=wye Kv=0.2200 Kva=75.0 %R=0.670
New Transformer.365309692_365476358 phases=3 windings=2 Xhl=3.770
~ wdg=1 bus=node_428046022.1.2.3 conn=delta Kv=13.8 Kva=75.0 %R=0.670
~ wdg=2 bus=node_423775856.1.2.3.4 conn=wye Kv=0.2200 Kva=75.0 %R=0.670
New Transformer.365333286_365484714 phases=3 windings=2 Xhl=3.770
~ wdg=1 bus=node_428959021.1.2.3 conn=delta Kv=13.8 Kva=75.0 %R=0.670
~ wdg=2 bus=node_423721136.1.2.3.4 conn=wye Kv=0.2200 Kva=75.0 %R=0.670
New Transformer.365346517_365476271 phases=3 windings=2 Xhl=3.770
~ wdg=1 bus=node_441506653.1.2.3 conn=delta Kv=13.8 Kva=75.0 %R=0.670
~ wdg=2 bus=node_423775130.1.2.3.4 conn=wye Kv=0.2200 Kva=75.0 %R=0.670
New Transformer.365346448_365379383 phases=3 windings=2 Xhl=3.770
~ wdg=1 bus=node_428045446.1.2.3 conn=delta Kv=13.8 Kva=75.0 %R=0.670
~ wdg=2 bus=node_423773624.1.2.3.4 conn=wye Kv=0.2200 Kva=75.0 %R=0.670
New Transformer.365309828_365449483 phases=3 windings=2 Xhl=3.770
~ wdg=1 bus=node_428046826.1.2.3 conn=delta Kv=13.8 Kva=75.0 %R=0.670
~ wdg=2 bus=node_423775862.1.2.3.4 conn=wye Kv=0.2200 Kva=75.0 %R=0.670
New Transformer.365347308_1898888711 phases=3 windings=2 Xhl=3.770
~ wdg=1 bus=node_442782340.1.2.3 conn=delta Kv=13.8 Kva=75.0 %R=0.670
~ wdg=2 bus=node_423772811.1.2.3.4 conn=wye Kv=0.2200 Kva=75.0 %R=0.670
New Transformer.1474821626_1474821625 phases=3 windings=2 Xhl=3.770
~ wdg=1 bus=node_1781967205.1.2.3 conn=delta Kv=13.8 Kva=75.0 %R=0.670
~ wdg=2 bus=node_1781967191.1.2.3.4 conn=wye Kv=0.2200 Kva=75.0 %R=0.670
New Transformer.365310077_1356822647 phases=3 windings=2 Xhl=3.770
~ wdg=1 bus=node_442515580.1.2.3 conn=delta Kv=13.8 Kva=75.0 %R=0.670
~ wdg=2 bus=node_423773246.1.2.3.4 conn=wye Kv=0.2200 Kva=75.0 %R=0.670
New Transformer.365346765_365466431 phases=3 windings=2 Xhl=3.770
~ wdg=1 bus=node_426142624.1.2.3 conn=delta Kv=13.8 Kva=75.0 %R=0.670
~ wdg=2 bus=node_423775604.1.2.3.4 conn=wye Kv=0.2200 Kva=75.0 %R=0.670
New Transformer.365346934_365464452 phases=3 windings=2 Xhl=3.770
~ wdg=1 bus=node_428046222.1.2.3 conn=delta Kv=13.8 Kva=75.0 %R=0.670
~ wdg=2 bus=node_423776249.1.2.3.4 conn=wye Kv=0.2200 Kva=75.0 %R=0.670
New Transformer.365346897_2090752999 phases=3 windings=2 Xhl=3.770
~ wdg=1 bus=node_2403296148.1.2.3 conn=delta Kv=13.8 Kva=75.0 %R=0.670
~ wdg=2 bus=node_2403296135.1.2.3.4 conn=wye Kv=0.2200 Kva=75.0 %R=0.670
New Transformer.365310203_365450872 phases=3 windings=2 Xhl=3.770
~ wdg=1 bus=node_428344825.1.2.3 conn=delta Kv=13.8 Kva=75.0 %R=0.670
~ wdg=2 bus=node_423719153.1.2.3.4 conn=wye Kv=0.2200 Kva=75.0 %R=0.670
New Transformer.365310258_365453734 phases=3 windings=2 Xhl=3.770
~ wdg=1 bus=node_426143449.1.2.3 conn=delta Kv=13.8 Kva=75.0 %R=0.670
~ wdg=2 bus=node_423775394.1.2.3.4 conn=wye Kv=0.2200 Kva=75.0 %R=0.670
New Transformer.365347256_365486214 phases=3 windings=2 Xhl=3.770
~ wdg=1 bus=node_442373592.1.2.3 conn=delta Kv=13.8 Kva=75.0 %R=0.670
~ wdg=2 bus=node_423773786.1.2.3.4 conn=wye Kv=0.2200 Kva=75.0 %R=0.670
New Transformer.365310143_365476335 phases=3 windings=2 Xhl=3.770
~ wdg=1 bus=node_428822410.1.2.3 conn=delta Kv=13.8 Kva=75.0 %R=0.670
~ wdg=2 bus=node_423775949.1.2.3.4 conn=wye Kv=0.2200 Kva=75.0 %R=0.670
New Transformer.365347131_1020692465 phases=3 windings=2 Xhl=3.770
~ wdg=1 bus=node_428046191.1.2.3 conn=delta Kv=13.8 Kva=75.0 %R=0.670
~ wdg=2 bus=node_423775745.1.2.3.4 conn=wye Kv=0.2200 Kva=75.0 %R=0.670
New Transformer.365347273_365466434 phases=3 windings=2 Xhl=3.770
~ wdg=1 bus=node_428046122.1.2.3 conn=delta Kv=13.8 Kva=75.0 %R=0.670
~ wdg=2 bus=node_423776267.1.2.3.4 conn=wye Kv=0.2200 Kva=75.0 %R=0.670
New Transformer.1976975134_1976975133 phases=3 windings=2 Xhl=3.770
~ wdg=1 bus=node_2239867100.1.2.3 conn=delta Kv=13.8 Kva=75.0 %R=0.670
~ wdg=2 bus=node_2239867087.1.2.3.4 conn=wye Kv=0.2200 Kva=75.0 %R=0.670
New Transformer.365347612_365450448 phases=3 windings=2 Xhl=3.770
~ wdg=1 bus=node_441209023.1.2.3 conn=delta Kv=13.8 Kva=75.0 %R=0.670
~ wdg=2 bus=node_423761789.1.2.3.4 conn=wye Kv=0.2200 Kva=75.0 %R=0.670
New Transformer.365347845_365466471 phases=3 windings=2 Xhl=3.770
~ wdg=1 bus=node_428344514.1.2.3 conn=delta Kv=13.8 Kva=75.0 %R=0.670
~ wdg=2 bus=node_423217262.1.2.3.4 conn=wye Kv=0.2200 Kva=75.0 %R=0.670
New Transformer.365311163_2597522402 phases=3 windings=2 Xhl=3.770
~ wdg=1 bus=node_438110245.1.2.3 conn=delta Kv=13.8 Kva=75.0 %R=0.670
~ wdg=2 bus=node_423774929.1.2.3.4 conn=wye Kv=0.2200 Kva=75.0 %R=0.670
New Transformer.365310792_365484490 phases=3 windings=2 Xhl=3.770
~ wdg=1 bus=node_426143269.1.2.3 conn=delta Kv=13.8 Kva=75.0 %R=0.670
~ wdg=2 bus=node_423717083.1.2.3.4 conn=wye Kv=0.2200 Kva=75.0 %R=0.670
New Transformer.365347477_365379467 phases=3 windings=2 Xhl=3.770
~ wdg=1 bus=node_428665484.1.2.3 conn=delta Kv=13.8 Kva=75.0 %R=0.670
~ wdg=2 bus=node_423775310.1.2.3.4 conn=wye Kv=0.2200 Kva=75.0 %R=0.670
New Transformer.365311634_365452381 phases=3 windings=2 Xhl=3.770
~ wdg=1 bus=node_438111180.1.2.3 conn=delta Kv=13.8 Kva=75.0 %R=0.670
~ wdg=2 bus=node_423773933.1.2.3.4 conn=wye Kv=0.2200 Kva=75.0 %R=0.670
New Transformer.365369680_365464607 phases=3 windings=2 Xhl=3.770
~ wdg=1 bus=node_442093791.1.2.3 conn=delta Kv=13.8 Kva=75.0 %R=0.670
~ wdg=2 bus=node_423762674.1.2.3.4 conn=wye Kv=0.2200 Kva=75.0 %R=0.670
New Transformer.365348542_365476308 phases=3 windings=2 Xhl=3.770
~ wdg=1 bus=node_441661868.1.2.3 conn=delta Kv=13.8 Kva=75.0 %R=0.670
~ wdg=2 bus=node_423773804.1.2.3.4 conn=wye Kv=0.2200 Kva=75.0 %R=0.670
New Transformer.365369885_365480636 phases=3 windings=2 Xhl=3.770
~ wdg=1 bus=node_441953683.1.2.3 conn=delta Kv=13.8 Kva=75.0 %R=0.670
~ wdg=2 bus=node_423777644.1.2.3.4 conn=wye Kv=0.2200 Kva=75.0 %R=0.670
New Transformer.365369833_365482845 phases=3 windings=2 Xhl=3.770
~ wdg=1 bus=node_428046501.1.2.3 conn=delta Kv=13.8 Kva=75.0 %R=0.670
~ wdg=2 bus=node_423757949.1.2.3.4 conn=wye Kv=0.2200 Kva=75.0 %R=0.670
New Transformer.365311735_365476355 phases=3 windings=2 Xhl=3.770
~ wdg=1 bus=node_431800673.1.2.3 conn=delta Kv=13.8 Kva=75.0 %R=0.670
~ wdg=2 bus=node_423775994.1.2.3.4 conn=wye Kv=0.2200 Kva=75.0 %R=0.670
New Transformer.365369638_1462180019 phases=3 windings=2 Xhl=3.770
~ wdg=1 bus=node_432595973.1.2.3 conn=delta Kv=13.8 Kva=75.0 %R=0.670
~ wdg=2 bus=node_423718169.1.2.3.4 conn=wye Kv=0.2200 Kva=75.0 %R=0.670
New Transformer.365348202_365480646 phases=3 windings=2 Xhl=3.770
~ wdg=1 bus=node_426143544.1.2.3 conn=delta Kv=13.8 Kva=75.0 %R=0.670
~ wdg=2 bus=node_423773876.1.2.3.4 conn=wye Kv=0.2200 Kva=75.0 %R=0.670
New Transformer.365348453_365483403 phases=3 windings=2 Xhl=3.770
~ wdg=1 bus=node_442223502.1.2.3 conn=delta Kv=13.8 Kva=75.0 %R=0.670
~ wdg=2 bus=node_423775913.1.2.3.4 conn=wye Kv=0.2200 Kva=75.0 %R=0.670
New Transformer.365311371_365480583 phases=3 windings=2 Xhl=3.770
~ wdg=1 bus=node_426787886.1.2.3 conn=delta Kv=13.8 Kva=75.0 %R=0.670
~ wdg=2 bus=node_423773945.1.2.3.4 conn=wye Kv=0.2200 Kva=75.0 %R=0.670
New Transformer.365348308_365480634 phases=3 windings=2 Xhl=3.770
~ wdg=1 bus=node_428045921.1.2.3 conn=delta Kv=13.8 Kva=75.0 %R=0.670
~ wdg=2 bus=node_810449618.1.2.3.4 conn=wye Kv=0.2200 Kva=75.0 %R=0.670
New Transformer.365348318_365480655 phases=3 windings=2 Xhl=3.770
~ wdg=1 bus=node_441953063.1.2.3 conn=delta Kv=13.8 Kva=75.0 %R=0.670
~ wdg=2 bus=node_423776684.1.2.3.4 conn=wye Kv=0.2200 Kva=75.0 %R=0.670
New Transformer.365311365_365449465 phases=3 windings=2 Xhl=3.770
~ wdg=1 bus=node_435269662.1.2.3 conn=delta Kv=13.8 Kva=75.0 %R=0.670
~ wdg=2 bus=node_423758000.1.2.3.4 conn=wye Kv=0.2200 Kva=75.0 %R=0.670
New Transformer.365348497_365450526 phases=3 windings=2 Xhl=3.770
~ wdg=1 bus=node_428823034.1.2.3 conn=delta Kv=13.8 Kva=75.0 %R=0.670
~ wdg=2 bus=node_423762785.1.2.3.4 conn=wye Kv=0.2200 Kva=75.0 %R=0.670
New Transformer.365311294_365466369 phases=3 windings=2 Xhl=3.770
~ wdg=1 bus=node_426144183.1.2.3 conn=delta Kv=13.8 Kva=75.0 %R=0.670
~ wdg=2 bus=node_423772673.1.2.3.4 conn=wye Kv=0.2200 Kva=75.0 %R=0.670
New Transformer.365311182_365479742 phases=3 windings=2 Xhl=3.770
~ wdg=1 bus=node_431800578.1.2.3 conn=delta Kv=13.8 Kva=75.0 %R=0.670
~ wdg=2 bus=node_423739913.1.2.3.4 conn=wye Kv=0.2200 Kva=75.0 %R=0.670
New Transformer.365311187_365465011 phases=3 windings=2 Xhl=3.770
~ wdg=1 bus=node_426142734.1.2.3 conn=delta Kv=13.8 Kva=75.0 %R=0.670
~ wdg=2 bus=node_423719675.1.2.3.4 conn=wye Kv=0.2200 Kva=75.0 %R=0.670
New Transformer.365311387_365486122 phases=3 windings=2 Xhl=3.770
~ wdg=1 bus=node_432599027.1.2.3 conn=delta Kv=13.8 Kva=75.0 %R=0.670
~ wdg=2 bus=node_423773417.1.2.3.4 conn=wye Kv=0.2200 Kva=75.0 %R=0.670
New Transformer.365349274_365477831 phases=3 windings=2 Xhl=3.770
~ wdg=1 bus=node_428823454.1.2.3 conn=delta Kv=13.8 Kva=75.0 %R=0.670
~ wdg=2 bus=node_423721289.1.2.3.4 conn=wye Kv=0.2200 Kva=75.0 %R=0.670
New Transformer.365311876_668743268 phases=3 windings=2 Xhl=3.770
~ wdg=1 bus=node_426302556.1.2.3 conn=delta Kv=13.8 Kva=75.0 %R=0.670
~ wdg=2 bus=node_423776600.1.2.3.4 conn=wye Kv=0.2200 Kva=75.0 %R=0.670
New Transformer.365349037_365483409 phases=3 windings=2 Xhl=3.770
~ wdg=1 bus=node_441660493.1.2.3 conn=delta Kv=13.8 Kva=75.0 %R=0.670
~ wdg=2 bus=node_423772454.1.2.3.4 conn=wye Kv=0.2200 Kva=75.0 %R=0.670
New Transformer.365329419_365379458 phases=3 windings=2 Xhl=3.770
~ wdg=1 bus=node_444462411.1.2.3 conn=delta Kv=13.8 Kva=75.0 %R=0.670
~ wdg=2 bus=node_423776519.1.2.3.4 conn=wye Kv=0.2200 Kva=75.0 %R=0.670
New Transformer.365370325_365480600 phases=3 windings=2 Xhl=3.770
~ wdg=1 bus=node_442664110.1.2.3 conn=delta Kv=13.8 Kva=75.0 %R=0.670
~ wdg=2 bus=node_423774839.1.2.3.4 conn=wye Kv=0.2200 Kva=75.0 %R=0.670
New Transformer.365311845_1477711446 phases=3 windings=2 Xhl=3.770
~ wdg=1 bus=node_442096810.1.2.3 conn=delta Kv=13.8 Kva=75.0 %R=0.670
~ wdg=2 bus=node_423773879.1.2.3.4 conn=wye Kv=0.2200 Kva=75.0 %R=0.670
New Transformer.365311854_365480175 phases=3 windings=2 Xhl=3.770
~ wdg=1 bus=node_442663986.1.2.3 conn=delta Kv=13.8 Kva=75.0 %R=0.670
~ wdg=2 bus=node_423761780.1.2.3.4 conn=wye Kv=0.2200 Kva=75.0 %R=0.670
New Transformer.365370574_365452425 phases=3 windings=2 Xhl=3.770
~ wdg=1 bus=node_441954747.1.2.3 conn=delta Kv=13.8 Kva=75.0 %R=0.670
~ wdg=2 bus=node_423777728.1.2.3.4 conn=wye Kv=0.2200 Kva=75.0 %R=0.670
New Transformer.365370473_1037563826 phases=3 windings=2 Xhl=3.770
~ wdg=1 bus=node_442514310.1.2.3 conn=delta Kv=13.8 Kva=75.0 %R=0.670
~ wdg=2 bus=node_423773840.1.2.3.4 conn=wye Kv=0.2200 Kva=75.0 %R=0.670
New Transformer.365370508_365486105 phases=3 windings=2 Xhl=3.770
~ wdg=1 bus=node_442931587.1.2.3 conn=delta Kv=13.8 Kva=75.0 %R=0.670
~ wdg=2 bus=node_423774800.1.2.3.4 conn=wye Kv=0.2200 Kva=75.0 %R=0.670
New Transformer.365348745_365451874 phases=3 windings=2 Xhl=3.770
~ wdg=1 bus=node_428202124.1.2.3 conn=delta Kv=13.8 Kva=75.0 %R=0.670
~ wdg=2 bus=node_423759362.1.2.3.4 conn=wye Kv=0.2200 Kva=75.0 %R=0.670
New Transformer.365348629_365465902 phases=3 windings=2 Xhl=3.770
~ wdg=1 bus=node_442517350.1.2.3 conn=delta Kv=13.8 Kva=75.0 %R=0.670
~ wdg=2 bus=node_423759284.1.2.3.4 conn=wye Kv=0.2200 Kva=75.0 %R=0.670
New Transformer.365311832_365466451 phases=3 windings=2 Xhl=3.770
~ wdg=1 bus=node_426299802.1.2.3 conn=delta Kv=13.8 Kva=75.0 %R=0.670
~ wdg=2 bus=node_423776456.1.2.3.4 conn=wye Kv=0.2200 Kva=75.0 %R=0.670
New Transformer.365312041_365483404 phases=3 windings=2 Xhl=3.770
~ wdg=1 bus=node_441809858.1.2.3 conn=delta Kv=13.8 Kva=75.0 %R=0.670
~ wdg=2 bus=node_423776285.1.2.3.4 conn=wye Kv=0.2200 Kva=75.0 %R=0.670
New Transformer.365348722_365450432 phases=3 windings=2 Xhl=3.770
~ wdg=1 bus=node_428665650.1.2.3 conn=delta Kv=13.8 Kva=75.0 %R=0.670
~ wdg=2 bus=node_423761486.1.2.3.4 conn=wye Kv=0.2200 Kva=75.0 %R=0.670
New Transformer.365349604_365464100 phases=3 windings=2 Xhl=3.770
~ wdg=1 bus=node_441506748.1.2.3 conn=delta Kv=13.8 Kva=75.0 %R=0.670
~ wdg=2 bus=node_423750797.1.2.3.4 conn=wye Kv=0.2200 Kva=75.0 %R=0.670
New Transformer.365349439_365486145 phases=3 windings=2 Xhl=3.770
~ wdg=1 bus=node_426301092.1.2.3 conn=delta Kv=13.8 Kva=75.0 %R=0.670
~ wdg=2 bus=node_423773672.1.2.3.4 conn=wye Kv=0.2200 Kva=75.0 %R=0.670
New Transformer.365349956_365483400 phases=3 windings=2 Xhl=3.770
~ wdg=1 bus=node_428822551.1.2.3 conn=delta Kv=13.8 Kva=75.0 %R=0.670
~ wdg=2 bus=node_423776171.1.2.3.4 conn=wye Kv=0.2200 Kva=75.0 %R=0.670
New Transformer.365349760_365483352 phases=3 windings=2 Xhl=3.770
~ wdg=1 bus=node_441809844.1.2.3 conn=delta Kv=13.8 Kva=75.0 %R=0.670
~ wdg=2 bus=node_423775934.1.2.3.4 conn=wye Kv=0.2200 Kva=75.0 %R=0.670
New Transformer.365350052_365466314 phases=3 windings=2 Xhl=3.770
~ wdg=1 bus=node_442931277.1.2.3 conn=delta Kv=13.8 Kva=75.0 %R=0.670
~ wdg=2 bus=node_423775049.1.2.3.4 conn=wye Kv=0.2200 Kva=75.0 %R=0.670
New Transformer.365349729_365379315 phases=3 windings=2 Xhl=3.770
~ wdg=1 bus=node_426922735.1.2.3 conn=delta Kv=13.8 Kva=75.0 %R=0.670
~ wdg=2 bus=node_423774935.1.2.3.4 conn=wye Kv=0.2200 Kva=75.0 %R=0.670
New Transformer.365371332_365379314 phases=3 windings=2 Xhl=3.770
~ wdg=1 bus=node_442096801.1.2.3 conn=delta Kv=13.8 Kva=75.0 %R=0.670
~ wdg=2 bus=node_423774458.1.2.3.4 conn=wye Kv=0.2200 Kva=75.0 %R=0.670
New Transformer.365349908_1567726518 phases=3 windings=2 Xhl=3.770
~ wdg=1 bus=node_442096531.1.2.3 conn=delta Kv=13.8 Kva=75.0 %R=0.670
~ wdg=2 bus=node_423761228.1.2.3.4 conn=wye Kv=0.2200 Kva=75.0 %R=0.670
New Transformer.365370880_365476350 phases=3 windings=2 Xhl=3.770
~ wdg=1 bus=node_442223956.1.2.3 conn=delta Kv=13.8 Kva=75.0 %R=0.670
~ wdg=2 bus=node_423776471.1.2.3.4 conn=wye Kv=0.2200 Kva=75.0 %R=0.670
New Transformer.365370829_365486193 phases=3 windings=2 Xhl=3.770
~ wdg=1 bus=node_426142619.1.2.3 conn=delta Kv=13.8 Kva=75.0 %R=0.670
~ wdg=2 bus=node_423775721.1.2.3.4 conn=wye Kv=0.2200 Kva=75.0 %R=0.670
New Transformer.365371290_365450996 phases=3 windings=2 Xhl=3.770
~ wdg=1 bus=node_426143913.1.2.3 conn=delta Kv=13.8 Kva=75.0 %R=0.670
~ wdg=2 bus=node_423760514.1.2.3.4 conn=wye Kv=0.2200 Kva=75.0 %R=0.670
New Transformer.365371218_365477724 phases=3 windings=2 Xhl=3.770
~ wdg=1 bus=node_428665714.1.2.3 conn=delta Kv=13.8 Kva=75.0 %R=0.670
~ wdg=2 bus=node_559408094.1.2.3.4 conn=wye Kv=0.2200 Kva=75.0 %R=0.670
New Transformer.365370969_365476317 phases=3 windings=2 Xhl=3.770
~ wdg=1 bus=node_442094141.1.2.3 conn=delta Kv=13.8 Kva=75.0 %R=0.670
~ wdg=2 bus=node_423774257.1.2.3.4 conn=wye Kv=0.2200 Kva=75.0 %R=0.670
New Transformer.365350084_1867340446 phases=3 windings=2 Xhl=3.770
~ wdg=1 bus=node_2188351410.1.2.3 conn=delta Kv=13.8 Kva=75.0 %R=0.670
~ wdg=2 bus=node_2188351396.1.2.3.4 conn=wye Kv=0.2200 Kva=75.0 %R=0.670
New Transformer.365349849_855240276 phases=3 windings=2 Xhl=3.770
~ wdg=1 bus=node_441811679.1.2.3 conn=delta Kv=13.8 Kva=75.0 %R=0.670
~ wdg=2 bus=node_423778055.1.2.3.4 conn=wye Kv=0.2200 Kva=75.0 %R=0.670
New Transformer.2036893444_2036893443 phases=3 windings=2 Xhl=3.770
~ wdg=1 bus=node_2363181628.1.2.3 conn=delta Kv=13.8 Kva=75.0 %R=0.670
~ wdg=2 bus=node_2363181558.1.2.3.4 conn=wye Kv=0.2200 Kva=75.0 %R=0.670
New Transformer.1754923469_1754923468 phases=3 windings=2 Xhl=3.770
~ wdg=1 bus=node_442374997.1.2.3 conn=delta Kv=13.8 Kva=75.0 %R=0.670
~ wdg=2 bus=node_554702312.1.2.3.4 conn=wye Kv=0.2200 Kva=75.0 %R=0.670
New Transformer.365349997_621990194 phases=3 windings=2 Xhl=3.770
~ wdg=1 bus=node_442781254.1.2.3 conn=delta Kv=13.8 Kva=75.0 %R=0.670
~ wdg=2 bus=node_423772655.1.2.3.4 conn=wye Kv=0.2200 Kva=75.0 %R=0.670
New Transformer.365349687_365452439 phases=3 windings=2 Xhl=3.770
~ wdg=1 bus=node_435266338.1.2.3 conn=delta Kv=13.8 Kva=75.0 %R=0.670
~ wdg=2 bus=node_423775556.1.2.3.4 conn=wye Kv=0.2200 Kva=75.0 %R=0.670
New Transformer.365349830_1909850980 phases=3 windings=2 Xhl=3.770
~ wdg=1 bus=node_438110155.1.2.3 conn=delta Kv=13.8 Kva=75.0 %R=0.670
~ wdg=2 bus=node_423773765.1.2.3.4 conn=wye Kv=0.2200 Kva=75.0 %R=0.670
New Transformer.365371875_365485725 phases=3 windings=2 Xhl=3.770
~ wdg=1 bus=node_440581860.1.2.3 conn=delta Kv=13.8 Kva=75.0 %R=0.670
~ wdg=2 bus=node_423761765.1.2.3.4 conn=wye Kv=0.2200 Kva=75.0 %R=0.670
New Transformer.365350418_365486167 phases=3 windings=2 Xhl=3.770
~ wdg=1 bus=node_438109975.1.2.3 conn=delta Kv=13.8 Kva=75.0 %R=0.670
~ wdg=2 bus=node_423773936.1.2.3.4 conn=wye Kv=0.2200 Kva=75.0 %R=0.670
New Transformer.365376503_2046189920 phases=3 windings=2 Xhl=3.770
~ wdg=1 bus=node_442094476.1.2.3 conn=delta Kv=13.8 Kva=75.0 %R=0.670
~ wdg=2 bus=node_423773759.1.2.3.4 conn=wye Kv=0.2200 Kva=75.0 %R=0.670
New Transformer.365350678_365483413 phases=3 windings=2 Xhl=3.770
~ wdg=1 bus=node_425982940.1.2.3 conn=delta Kv=13.8 Kva=75.0 %R=0.670
~ wdg=2 bus=node_423216971.1.2.3.4 conn=wye Kv=0.2200 Kva=75.0 %R=0.670
New Transformer.365371481_365480570 phases=3 windings=2 Xhl=3.770
~ wdg=1 bus=node_432595344.1.2.3 conn=delta Kv=13.8 Kva=75.0 %R=0.670
~ wdg=2 bus=node_423772826.1.2.3.4 conn=wye Kv=0.2200 Kva=75.0 %R=0.670
New Transformer.365350587_365483251 phases=3 windings=2 Xhl=3.770
~ wdg=1 bus=node_428823054.1.2.3 conn=delta Kv=13.8 Kva=75.0 %R=0.670
~ wdg=2 bus=node_423772709.1.2.3.4 conn=wye Kv=0.2200 Kva=75.0 %R=0.670
New Transformer.365350232_365480530 phases=3 windings=2 Xhl=3.770
~ wdg=1 bus=node_441660408.1.2.3 conn=delta Kv=13.8 Kva=75.0 %R=0.670
~ wdg=2 bus=node_423775157.1.2.3.4 conn=wye Kv=0.2200 Kva=75.0 %R=0.670
New Transformer.365371854_365483363 phases=3 windings=2 Xhl=3.770
~ wdg=1 bus=node_438108851.1.2.3 conn=delta Kv=13.8 Kva=75.0 %R=0.670
~ wdg=2 bus=node_423774641.1.2.3.4 conn=wye Kv=0.2200 Kva=75.0 %R=0.670
New Transformer.365368066_365379439 phases=3 windings=2 Xhl=3.770
~ wdg=1 bus=node_441952738.1.2.3 conn=delta Kv=13.8 Kva=75.0 %R=0.670
~ wdg=2 bus=node_423773639.1.2.3.4 conn=wye Kv=0.2200 Kva=75.0 %R=0.670
New Transformer.365372159_959133774 phases=3 windings=2 Xhl=3.770
~ wdg=1 bus=node_442514205.1.2.3 conn=delta Kv=13.8 Kva=75.0 %R=0.670
~ wdg=2 bus=node_423774179.1.2.3.4 conn=wye Kv=0.2200 Kva=75.0 %R=0.670
New Transformer.365371796_365480576 phases=3 windings=2 Xhl=3.770
~ wdg=1 bus=node_438110320.1.2.3 conn=delta Kv=13.8 Kva=75.0 %R=0.670
~ wdg=2 bus=node_423773678.1.2.3.4 conn=wye Kv=0.2200 Kva=75.0 %R=0.670
New Transformer.365371636_2540253250 phases=3 windings=2 Xhl=3.770
~ wdg=1 bus=node_432443184.1.2.3 conn=delta Kv=13.8 Kva=75.0 %R=0.670
~ wdg=2 bus=node_423774818.1.2.3.4 conn=wye Kv=0.2200 Kva=75.0 %R=0.670
New Transformer.365372077_1422679554 phases=3 windings=2 Xhl=3.770
~ wdg=1 bus=node_440585850.1.2.3 conn=delta Kv=13.8 Kva=75.0 %R=0.670
~ wdg=2 bus=node_423772316.1.2.3.4 conn=wye Kv=0.2200 Kva=75.0 %R=0.670
New Transformer.365350148_365379441 phases=3 windings=2 Xhl=3.770
~ wdg=1 bus=node_441661243.1.2.3 conn=delta Kv=13.8 Kva=75.0 %R=0.670
~ wdg=2 bus=node_423776042.1.2.3.4 conn=wye Kv=0.2200 Kva=75.0 %R=0.670
New Transformer.365368220_365452382 phases=3 windings=2 Xhl=3.770
~ wdg=1 bus=node_440582715.1.2.3 conn=delta Kv=13.8 Kva=75.0 %R=0.670
~ wdg=2 bus=node_423773729.1.2.3.4 conn=wye Kv=0.2200 Kva=75.0 %R=0.670
New Transformer.365368314_2214055113 phases=3 windings=2 Xhl=3.770
~ wdg=1 bus=node_441955283.1.2.3 conn=delta Kv=13.8 Kva=75.0 %R=0.670
~ wdg=2 bus=node_423774083.1.2.3.4 conn=wye Kv=0.2200 Kva=75.0 %R=0.670
New Transformer.365368501_365481837 phases=3 windings=2 Xhl=3.770
~ wdg=1 bus=node_428345117.1.2.3 conn=delta Kv=13.8 Kva=75.0 %R=0.670
~ wdg=2 bus=node_562106902.1.2.3.4 conn=wye Kv=0.2200 Kva=75.0 %R=0.670
New Transformer.365368373_365452441 phases=3 windings=2 Xhl=3.770
~ wdg=1 bus=node_428824403.1.2.3 conn=delta Kv=13.8 Kva=75.0 %R=0.670
~ wdg=2 bus=node_423775685.1.2.3.4 conn=wye Kv=0.2200 Kva=75.0 %R=0.670
New Transformer.365368515_365476356 phases=3 windings=2 Xhl=3.770
~ wdg=1 bus=node_428046111.1.2.3 conn=delta Kv=13.8 Kva=75.0 %R=0.670
~ wdg=2 bus=node_423775889.1.2.3.4 conn=wye Kv=0.2200 Kva=75.0 %R=0.670
New Transformer.365368519_365476313 phases=3 windings=2 Xhl=3.770
~ wdg=1 bus=node_441953633.1.2.3 conn=delta Kv=13.8 Kva=75.0 %R=0.670
~ wdg=2 bus=node_423773807.1.2.3.4 conn=wye Kv=0.2200 Kva=75.0 %R=0.670
New Transformer.365368600_365483350 phases=3 windings=2 Xhl=3.770
~ wdg=1 bus=node_441810824.1.2.3 conn=delta Kv=13.8 Kva=75.0 %R=0.670
~ wdg=2 bus=node_423773828.1.2.3.4 conn=wye Kv=0.2200 Kva=75.0 %R=0.670
New Transformer.365377213_747641222 phases=3 windings=2 Xhl=3.770
~ wdg=1 bus=node_442372887.1.2.3 conn=delta Kv=13.8 Kva=75.0 %R=0.670
~ wdg=2 bus=node_423774062.1.2.3.4 conn=wye Kv=0.2200 Kva=75.0 %R=0.670
New Transformer.365376611_1191078308 phases=3 windings=2 Xhl=3.770
~ wdg=1 bus=node_442933077.1.2.3 conn=delta Kv=13.8 Kva=75.0 %R=0.670
~ wdg=2 bus=node_423772304.1.2.3.4 conn=wye Kv=0.2200 Kva=75.0 %R=0.670
New Transformer.365368915_365486083 phases=3 windings=2 Xhl=3.770
~ wdg=1 bus=node_440584545.1.2.3 conn=delta Kv=13.8 Kva=75.0 %R=0.670
~ wdg=2 bus=node_423774719.1.2.3.4 conn=wye Kv=0.2200 Kva=75.0 %R=0.670
New Transformer.365368755_1262092480 phases=3 windings=2 Xhl=3.770
~ wdg=1 bus=node_441809944.1.2.3 conn=delta Kv=13.8 Kva=75.0 %R=0.670
~ wdg=2 bus=node_423773681.1.2.3.4 conn=wye Kv=0.2200 Kva=75.0 %R=0.670
New Transformer.365376939_365486216 phases=3 windings=2 Xhl=3.770
~ wdg=1 bus=node_442095531.1.2.3 conn=delta Kv=13.8 Kva=75.0 %R=0.670
~ wdg=2 bus=node_423776264.1.2.3.4 conn=wye Kv=0.2200 Kva=75.0 %R=0.670
New Transformer.365376982_365453732 phases=3 windings=2 Xhl=3.770
~ wdg=1 bus=node_441507812.1.2.3 conn=delta Kv=13.8 Kva=75.0 %R=0.670
~ wdg=2 bus=node_423775382.1.2.3.4 conn=wye Kv=0.2200 Kva=75.0 %R=0.670
New Transformer.365377033_365379456 phases=3 windings=2 Xhl=3.770
~ wdg=1 bus=node_442097156.1.2.3 conn=delta Kv=13.8 Kva=75.0 %R=0.670
~ wdg=2 bus=node_423776207.1.2.3.4 conn=wye Kv=0.2200 Kva=75.0 %R=0.670
New Transformer.365377042_365483379 phases=3 windings=2 Xhl=3.770
~ wdg=1 bus=node_431658581.1.2.3 conn=delta Kv=13.8 Kva=75.0 %R=0.670
~ wdg=2 bus=node_423775664.1.2.3.4 conn=wye Kv=0.2200 Kva=75.0 %R=0.670
New Transformer.365368974_365379451 phases=3 windings=2 Xhl=3.770
~ wdg=1 bus=node_441506888.1.2.3 conn=delta Kv=13.8 Kva=75.0 %R=0.670
~ wdg=2 bus=node_423775280.1.2.3.4 conn=wye Kv=0.2200 Kva=75.0 %R=0.670
New Transformer.365377114_365483378 phases=3 windings=2 Xhl=3.770
~ wdg=1 bus=node_428665495.1.2.3 conn=delta Kv=13.8 Kva=75.0 %R=0.670
~ wdg=2 bus=node_423776705.1.2.3.4 conn=wye Kv=0.2200 Kva=75.0 %R=0.670
New Transformer.365377323_365466437 phases=3 windings=2 Xhl=3.770
~ wdg=1 bus=node_431657258.1.2.3 conn=delta Kv=13.8 Kva=75.0 %R=0.670
~ wdg=2 bus=node_423775775.1.2.3.4 conn=wye Kv=0.2200 Kva=75.0 %R=0.670
New Transformer.365377116_2644125923 phases=3 windings=2 Xhl=3.770
~ wdg=1 bus=node_425982770.1.2.3 conn=delta Kv=13.8 Kva=75.0 %R=0.670
~ wdg=2 bus=node_423207987.1.2.3.4 conn=wye Kv=0.2200 Kva=75.0 %R=0.670
New Transformer.365377289_365466452 phases=3 windings=2 Xhl=3.770
~ wdg=1 bus=node_442095916.1.2.3 conn=delta Kv=13.8 Kva=75.0 %R=0.670
~ wdg=2 bus=node_423776468.1.2.3.4 conn=wye Kv=0.2200 Kva=75.0 %R=0.670
New Transformer.365368903_1234726818 phases=3 windings=2 Xhl=3.770
~ wdg=1 bus=node_431800677.1.2.3 conn=delta Kv=13.8 Kva=75.0 %R=0.670
~ wdg=2 bus=node_423775871.1.2.3.4 conn=wye Kv=0.2200 Kva=75.0 %R=0.670
New Transformer.365368947_515481818 phases=3 windings=2 Xhl=3.770
~ wdg=1 bus=node_442373857.1.2.3 conn=delta Kv=13.8 Kva=75.0 %R=0.670
~ wdg=2 bus=node_423772925.1.2.3.4 conn=wye Kv=0.2200 Kva=75.0 %R=0.670
New Transformer.365368944_365466416 phases=3 windings=2 Xhl=3.770
~ wdg=1 bus=node_441952164.1.2.3 conn=delta Kv=13.8 Kva=75.0 %R=0.670
~ wdg=2 bus=node_423774155.1.2.3.4 conn=wye Kv=0.2200 Kva=75.0 %R=0.670
New Transformer.575975739_575975738 phases=3 windings=2 Xhl=3.770
~ wdg=1 bus=node_844350784.1.2.3 conn=delta Kv=13.8 Kva=75.0 %R=0.670
~ wdg=2 bus=node_844350814.1.2.3.4 conn=wye Kv=0.2200 Kva=75.0 %R=0.670
New Transformer.365369333_365465628 phases=3 windings=2 Xhl=3.770
~ wdg=1 bus=node_428046377.1.2.3 conn=delta Kv=13.8 Kva=75.0 %R=0.670
~ wdg=2 bus=node_423776159.1.2.3.4 conn=wye Kv=0.2200 Kva=75.0 %R=0.670
New Transformer.2109363150_2109363151 phases=3 windings=2 Xhl=3.770
~ wdg=1 bus=node_2424237868.1.2.3 conn=delta Kv=13.8 Kva=75.0 %R=0.670
~ wdg=2 bus=node_2424237841.1.2.3.4 conn=wye Kv=0.2200 Kva=75.0 %R=0.670
New Transformer.365369098_365379386 phases=3 windings=2 Xhl=3.770
~ wdg=1 bus=node_428044982.1.2.3 conn=delta Kv=13.8 Kva=75.0 %R=0.670
~ wdg=2 bus=node_423773357.1.2.3.4 conn=wye Kv=0.2200 Kva=75.0 %R=0.670
New Transformer.365369399_365464597 phases=3 windings=2 Xhl=3.770
~ wdg=1 bus=node_442662371.1.2.3 conn=delta Kv=13.8 Kva=75.0 %R=0.670
~ wdg=2 bus=node_423765023.1.2.3.4 conn=wye Kv=0.2200 Kva=75.0 %R=0.670
New Transformer.365369406_365379446 phases=3 windings=2 Xhl=3.770
~ wdg=1 bus=node_431800643.1.2.3 conn=delta Kv=13.8 Kva=75.0 %R=0.670
~ wdg=2 bus=node_423775754.1.2.3.4 conn=wye Kv=0.2200 Kva=75.0 %R=0.670
New Transformer.365369534_365379447 phases=3 windings=2 Xhl=3.770
~ wdg=1 bus=node_441509028.1.2.3 conn=delta Kv=13.8 Kva=75.0 %R=0.670
~ wdg=2 bus=node_423775460.1.2.3.4 conn=wye Kv=0.2200 Kva=75.0 %R=0.670
New Transformer.365369310_365476340 phases=3 windings=2 Xhl=3.770
~ wdg=1 bus=node_428045107.1.2.3 conn=delta Kv=13.8 Kva=75.0 %R=0.670
~ wdg=2 bus=node_423775661.1.2.3.4 conn=wye Kv=0.2200 Kva=75.0 %R=0.670
New Transformer.365369486_365482854 phases=3 windings=2 Xhl=3.770
~ wdg=1 bus=node_441507573.1.2.3 conn=delta Kv=13.8 Kva=75.0 %R=0.670
~ wdg=2 bus=node_423760652.1.2.3.4 conn=wye Kv=0.2200 Kva=75.0 %R=0.670
New Transformer.365378127_365466377 phases=3 windings=2 Xhl=3.770
~ wdg=1 bus=node_441663433.1.2.3 conn=delta Kv=13.8 Kva=75.0 %R=0.670
~ wdg=2 bus=node_423772889.1.2.3.4 conn=wye Kv=0.2200 Kva=75.0 %R=0.670
New Transformer.365377570_365466373 phases=3 windings=2 Xhl=3.770
~ wdg=1 bus=node_441371514.1.2.3 conn=delta Kv=13.8 Kva=75.0 %R=0.670
~ wdg=2 bus=node_423773009.1.2.3.4 conn=wye Kv=0.2200 Kva=75.0 %R=0.670
New Transformer.365378137_365481850 phases=3 windings=2 Xhl=3.770
~ wdg=1 bus=node_426300507.1.2.3 conn=delta Kv=13.8 Kva=75.0 %R=0.670
~ wdg=2 bus=node_423777035.1.2.3.4 conn=wye Kv=0.2200 Kva=75.0 %R=0.670
New Transformer.365377998_365478668 phases=3 windings=2 Xhl=3.770
~ wdg=1 bus=node_428958551.1.2.3 conn=delta Kv=13.8 Kva=75.0 %R=0.670
~ wdg=2 bus=node_423763661.1.2.3.4 conn=wye Kv=0.2200 Kva=75.0 %R=0.670
New Transformer.365378012_365476343 phases=3 windings=2 Xhl=3.770
~ wdg=1 bus=node_426300101.1.2.3 conn=delta Kv=13.8 Kva=75.0 %R=0.670
~ wdg=2 bus=node_423776747.1.2.3.4 conn=wye Kv=0.2200 Kva=75.0 %R=0.670
New Transformer.365377845_365486209 phases=3 windings=2 Xhl=3.770
~ wdg=1 bus=node_442097170.1.2.3 conn=delta Kv=13.8 Kva=75.0 %R=0.670
~ wdg=2 bus=node_423776315.1.2.3.4 conn=wye Kv=0.2200 Kva=75.0 %R=0.670
New Transformer.365377908_365452435 phases=3 windings=2 Xhl=3.770
~ wdg=1 bus=node_432289311.1.2.3 conn=delta Kv=13.8 Kva=75.0 %R=0.670
~ wdg=2 bus=node_423776231.1.2.3.4 conn=wye Kv=0.2200 Kva=75.0 %R=0.670
New Transformer.365377741_365483391 phases=3 windings=2 Xhl=3.770
~ wdg=1 bus=node_442096415.1.2.3 conn=delta Kv=13.8 Kva=75.0 %R=0.670
~ wdg=2 bus=node_423773900.1.2.3.4 conn=wye Kv=0.2200 Kva=75.0 %R=0.670
New Transformer.365377607_365379306 phases=3 windings=2 Xhl=3.770
~ wdg=1 bus=node_442223497.1.2.3 conn=delta Kv=13.8 Kva=75.0 %R=0.670
~ wdg=2 bus=node_423773663.1.2.3.4 conn=wye Kv=0.2200 Kva=75.0 %R=0.670
New Transformer.365378232_365451096 phases=3 windings=2 Xhl=3.770
~ wdg=1 bus=node_428824468.1.2.3 conn=delta Kv=13.8 Kva=75.0 %R=0.670
~ wdg=2 bus=node_423724277.1.2.3.4 conn=wye Kv=0.2200 Kva=75.0 %R=0.670
New Transformer.365379168_365483398 phases=3 windings=2 Xhl=3.770
~ wdg=1 bus=node_428824528.1.2.3 conn=delta Kv=13.8 Kva=75.0 %R=0.670
~ wdg=2 bus=node_423776219.1.2.3.4 conn=wye Kv=0.2200 Kva=75.0 %R=0.670
New Transformer.365378629_365480618 phases=3 windings=2 Xhl=3.770
~ wdg=1 bus=node_428824143.1.2.3 conn=delta Kv=13.8 Kva=75.0 %R=0.670
~ wdg=2 bus=node_423774941.1.2.3.4 conn=wye Kv=0.2200 Kva=75.0 %R=0.670
New Transformer.365378875_365478541 phases=3 windings=2 Xhl=3.770
~ wdg=1 bus=node_428046506.1.2.3 conn=delta Kv=13.8 Kva=75.0 %R=0.670
~ wdg=2 bus=node_423758009.1.2.3.4 conn=wye Kv=0.2200 Kva=75.0 %R=0.670
New Transformer.365378542_365466029 phases=3 windings=2 Xhl=3.770
~ wdg=1 bus=node_442661526.1.2.3 conn=delta Kv=13.8 Kva=75.0 %R=0.670
~ wdg=2 bus=node_423762071.1.2.3.4 conn=wye Kv=0.2200 Kva=75.0 %R=0.670
New Transformer.365378691_365466445 phases=3 windings=2 Xhl=3.770
~ wdg=1 bus=node_441810589.1.2.3 conn=delta Kv=13.8 Kva=75.0 %R=0.670
~ wdg=2 bus=node_423776189.1.2.3.4 conn=wye Kv=0.2200 Kva=75.0 %R=0.670
New Transformer.365378927_365486078 phases=3 windings=2 Xhl=3.770
~ wdg=1 bus=node_440584000.1.2.3 conn=delta Kv=13.8 Kva=75.0 %R=0.670
~ wdg=2 bus=node_423774512.1.2.3.4 conn=wye Kv=0.2200 Kva=75.0 %R=0.670
New Transformer.2113674341_2113674340 phases=3 windings=2 Xhl=3.770
~ wdg=1 bus=node_2428656420.1.2.3 conn=delta Kv=13.8 Kva=75.0 %R=0.670
~ wdg=2 bus=node_2428656376.1.2.3.4 conn=wye Kv=0.2200 Kva=75.0 %R=0.670
New Transformer.2299084911_2299084910 phases=3 windings=2 Xhl=3.770
~ wdg=1 bus=node_2534795757.1.2.3 conn=delta Kv=13.8 Kva=75.0 %R=0.670
~ wdg=2 bus=node_2534795767.1.2.3.4 conn=wye Kv=0.2200 Kva=75.0 %R=0.670
New Transformer.2555674177_2555674178 phases=3 windings=2 Xhl=3.770
~ wdg=1 bus=node_2735874622.1.2.3 conn=delta Kv=13.8 Kva=75.0 %R=0.670
~ wdg=2 bus=node_423772523.1.2.3.4 conn=wye Kv=0.2200 Kva=75.0 %R=0.670
New Transformer.989741344_989741343 phases=3 windings=2 Xhl=3.700
~ wdg=1 bus=node_431505707.1.2.3 conn=delta Kv=13.8 Kva=45.0 %R=0.760
~ wdg=2 bus=node_554365086.1.2.3.4 conn=wye Kv=0.2200 Kva=45.0 %R=0.760
New Transformer.2195505407_2195505406 phases=3 windings=2 Xhl=3.700
~ wdg=1 bus=node_2501186776.1.2.3 conn=delta Kv=13.8 Kva=45.0 %R=0.760
~ wdg=2 bus=node_2501186755.1.2.3.4 conn=wye Kv=0.2200 Kva=45.0 %R=0.760
New Transformer.1069291958_1069291957 phases=3 windings=2 Xhl=3.700
~ wdg=1 bus=node_1336378722.1.2.3 conn=delta Kv=13.8 Kva=45.0 %R=0.760
~ wdg=2 bus=node_1336378739.1.2.3.4 conn=wye Kv=0.2200 Kva=45.0 %R=0.760
New Transformer.2283940024_2283940023 phases=3 windings=2 Xhl=3.700
~ wdg=1 bus=node_2512192181.1.2.3 conn=delta Kv=13.8 Kva=45.0 %R=0.760
~ wdg=2 bus=node_2512192161.1.2.3.4 conn=wye Kv=0.2200 Kva=45.0 %R=0.760
New Transformer.1106452289_1106452288 phases=3 windings=2 Xhl=3.700
~ wdg=1 bus=node_431506972.1.2.3 conn=delta Kv=13.8 Kva=45.0 %R=0.760
~ wdg=2 bus=node_554643610.1.2.3.4 conn=wye Kv=0.2200 Kva=45.0 %R=0.760
New Transformer.625949450_625949449 phases=3 windings=2 Xhl=3.700
~ wdg=1 bus=node_893985237.1.2.3 conn=delta Kv=13.8 Kva=45.0 %R=0.760
~ wdg=2 bus=node_893985292.1.2.3.4 conn=wye Kv=0.2200 Kva=45.0 %R=0.760
New Transformer.802604567_802604566 phases=3 windings=2 Xhl=3.700
~ wdg=1 bus=node_1073607507.1.2.3 conn=delta Kv=13.8 Kva=45.0 %R=0.760
~ wdg=2 bus=node_1073607931.1.2.3.4 conn=wye Kv=0.2200 Kva=45.0 %R=0.760
New Transformer.750449513_750449512 phases=3 windings=2 Xhl=3.700
~ wdg=1 bus=node_428046032.1.2.3 conn=delta Kv=13.8 Kva=45.0 %R=0.760
...